# This mCIF file was taken from the SI of the paper "On the magnetic and crystal structures of NiO and MnO" [Pomjakushin (2024). Acta Cryst. B80, 385-392, https://doi.org/10.1107/S205252062400756X], and modified chemical composition to test SHRY implementations.
# Four magnetic test mCIFs are provided: DOI: https://doi.org/10.1107/S205252062400756X/gar5002sup2.zip
# The article is an open-access article distributed under the terms of the Creative Commons Attribution (CC-BY) Licence.

data_MnCoO

loop_
_irrep_id
_irrep_dimension
_irrep_small_dimension
_irrep_direction_type
_irrep_action
_irrep_modes_number
_irrep_presence
mL3+  2  2  special  primary   1 .
mL2+  1  1  .        secondary 1  no

_parent_space_group.name_H-M_alt  "Fm-3m"
_parent_space_group.IT_number      225
_parent_space_group.transform_Pp_abc  "a,b,c;0,0,0"

loop_
_parent_propagation_vector.id
_parent_propagation_vector.kxkykz
k1 '[1/2 1/2 1/2]'

_parent_space_group.child_transform_Pp_abc  "a/2+b/2-c,a/2-b/2,-a-b;0,0,0"
_space_group_magn.transform_BNS_Pp_abc  "a,b,c;0,0,0"


_cell_length_a     5.45706
_cell_length_b     3.15147
_cell_length_c     6.23240
_cell_angle_alpha  90.00000
_cell_angle_beta   125.66770
_cell_angle_gamma  90.00000
_cell_volume       87.07706

_space_group_magn.number_BNS "15.90"
_space_group_magn.name_UNI "C2/c.1'_c[C2/m]"
_space_group_magn.name_BNS "C_c2/c"
_space_group_magn.number_OG "12.8.73"
_space_group_magn.name_OG "C_2c2/m'"
_space_group_magn.point_group_number_Litvin "5.2.13"
_space_group_magn.point_group_name_UNI "2/m.1'"

loop_
_space_group_magn_transforms.id
_space_group_magn_transforms.Pp_abc
_space_group_magn_transforms.source
1 a,b,c;0,0,0 "BNS"
2 a,b,1/2c;0,1/2,-1/2 "OG"

loop_
_space_group_symop_magn_operation.id
_space_group_symop_magn_operation.xyz
1 x,y,z,+1
2 -x,y,-z+1/2,+1
3 -x,-y,-z,+1
4 x,-y,z+1/2,+1

loop_
_space_group_symop_magn_centering.id
_space_group_symop_magn_centering.xyz
1 x,y,z,+1
2 x,y,z+1/2,-1
3 x+1/2,y+1/2,z,+1
4 x+1/2,y+1/2,z+1/2,-1

loop_
_atom_site_label
_atom_site_type_symbol
_atom_site_symmetry_multiplicity
_atom_site_Wyckoff_symbol
_atom_site_fract_x
_atom_site_fract_y
_atom_site_fract_z
_atom_site_occupancy
_atom_site_fract_symmform
_atom_site_U_iso_or_equiv
_atom_site_adp_type
Mn1 Mn   4 c  0.00000  0.00000  0.00000  0.50000 0,0,0  0.00297(19)   Uiso
Co1 Co   4 c  0.00000  0.00000  0.00000  0.50000 0,0,0  0.00297(19)   Uiso
O1  O    4 b  0.00000  0.50000  0.75000  1.00000 0,0,0  0.00415(18)   Uiso

loop_
_atom_site_moment.label
_atom_site_moment.crystalaxis_x
_atom_site_moment.crystalaxis_y
_atom_site_moment.crystalaxis_z
_atom_site_moment.symmform
Mn1  5.0000  0.00000  0.00000 Mx,0,Mz
Co1  5.0000  0.00000  0.00000 Mx,0,Mz
