# This mCIF file was taken from the SI of the paper "On the magnetic and crystal structures of NiO and MnO" [Pomjakushin (2024). Acta Cryst. B80, 385-392, https://doi.org/10.1107/S205252062400756X], and modified chemical composition to test SHRY implementations.
# Four magnetic test mCIFs are provided: DOI: https://doi.org/10.1107/S205252062400756X/gar5002sup2.zip
# The article is an open-access article distributed under the terms of the Creative Commons Attribution (CC-BY) Licence.

data_NiCoO
loop_
_irrep_id
_irrep_dimension
_irrep_small_dimension
_irrep_direction_type
_irrep_action
_irrep_modes_number
_irrep_presence
mL3+  6  2  special  primary   2 .
mL2+  4  1  .        secondary 2  yes

_parent_space_group.name_H-M_alt  "Fm-3m"
_parent_space_group.IT_number      225
_parent_space_group.transform_Pp_abc  "a,b,c;0,0,0"

loop_
_parent_propagation_vector.id
_parent_propagation_vector.kxkykz
k1 '[1/2 1/2 1/2]'
k2 '[1/2,-1/2,1/2]'
k3 '[1/2,1/2,-1/2]'

_parent_space_group.child_transform_Pp_abc  "-a-c,b+c,a+b-c;0,0,0"
_space_group_magn.transform_BNS_Pp_abc  "a,b,c;0,0,0"

_cell_length_a     5.90046
_cell_length_b     5.90046
_cell_length_c     14.42656
_cell_angle_alpha  90.00000
_cell_angle_beta   90.00000
_cell_angle_gamma  120.00000
_cell_volume       434.97586

_space_group_magn.number_BNS "148.20"
_space_group_magn.name_UNI "R-3.1'_c[R-3]"
_space_group_magn.name_BNS "R_I-3"
_space_group_magn.number_OG "148.4.1250"
_space_group_magn.name_OG "R_R-3"
_space_group_magn.point_group_number_Litvin "17.2.63"
_space_group_magn.point_group_name_UNI "-3.1'"

loop_
_space_group_magn_transforms.id
_space_group_magn_transforms.Pp_abc
_space_group_magn_transforms.source
1 a,b,c;0,0,0 "BNS"
2 -a,-b,1/2c;0,0,0 "OG"

loop_
_space_group_symop_magn_operation.id
_space_group_symop_magn_operation.xyz
1 x,y,z,+1
2 -y,x-y,z,+1
3 -x+y,-x,z,+1
4 -x,-y,-z,+1
5 y,-x+y,-z,+1
6 x-y,x,-z,+1

loop_
_space_group_symop_magn_centering.id
_space_group_symop_magn_centering.xyz
1 x,y,z,+1
2 x,y,z+1/2,-1
3 x+1/3,y+2/3,z+2/3,+1
4 x+1/3,y+2/3,z+1/6,-1
5 x+2/3,y+1/3,z+1/3,+1
6 x+2/3,y+1/3,z+5/6,-1

loop_
_atom_site_label
_atom_site_type_symbol
_atom_site_symmetry_multiplicity
_atom_site_Wyckoff_symbol
_atom_site_fract_x
_atom_site_fract_y
_atom_site_fract_z
_atom_site_occupancy
_atom_site_fract_symmform
_atom_site_U_iso_or_equiv
_atom_site_adp_type
Ni1 Ni  18 e  0.50000  0.00000  0.00000  0.8333333 0,0,0 0.00041  Uiso
Ni2 Ni   6 a  0.00000  0.00000  0.00000  0.8333333 0,0,0 0.00041  Uiso
Co1 Co  18 e  0.50000  0.00000  0.00000  0.1666667 0,0,0 0.00041  Uiso
Co2 Co   6 a  0.00000  0.00000  0.00000  0.1666667 0,0,0 0.00041  Uiso
O1  O   18 d  0.50000  0.00000  0.25000  1.0000000 0,0,0 0.00145  Uiso
O2  O    6 b  0.00000  0.00000  0.25000  1.0000000 0,0,0 0.00145  Uiso

loop_
_atom_site_moment.label
_atom_site_moment.crystalaxis_x
_atom_site_moment.crystalaxis_y
_atom_site_moment.crystalaxis_z
_atom_site_moment.symmform
Ni1 -0.655(3) -1.309(6)  1.619(7) Mx,My,Mz
Ni2  0.00000   0.00000  -1.977(8) 0,0,Mz
Co1 -0.655(3) -1.309(6)  1.619(7) Mx,My,Mz
Co2  0.00000   0.00000  -1.977(8) 0,0,Mz

# end of cif
